LTspice 24.0.9 for Windows
Circuit: * C:\SourceCode\GitHub\electronix\LTspice\LTspBasics\voltage\voltage_divider.asc
Start Time: Sat Apr 13 21:21:25 2024
solver = Normal
Maximum thread count: 4
tnom = 27
temp = 27
method = modified trap
Direct Newton iteration for .op point succeeded.
Total elapsed time: 0.083 seconds.

