LTspice 24.0.9 for Windows
Circuit: * C:\SourceCode\GitHub\electronix\LTspice\LTspBasics\diodes\1N914.asc
Start Time: Fri Apr 19 09:39:33 2024
solver = Normal
Maximum thread count: 8
tnom = 27
temp = 27
method = modified trap
Total elapsed time: 0.069 seconds.

