LTspice 24.0.9 for Windows
Circuit: * C:\SourceCode\GitHub\electronix\LTspice\LTspBasics\diodes\1N914_R1.asc
Start Time: Fri Apr 19 09:47:03 2024
solver = Normal
Maximum thread count: 8
tnom = 27
temp = 27
method = modified trap
v1: Missing value, assumed 0V @ DC
Total elapsed time: 0.085 seconds.

