LTspice 24.0.9 for Windows
Circuit: * C:\SourceCode\GitHub\electronix\LTspice\LTspBasics\measurement_tools\ammeter\ammeter_as_R.asc
Start Time: Sun Apr 14 11:38:33 2024
solver = Normal
Maximum thread count: 4
tnom = 27
temp = 27
method = modified trap
Direct Newton iteration for .op point succeeded.
Total elapsed time: 0.182 seconds.

